*Heading
** Job name: irregular_3Dmesh Model name: Model-1
** Generated by: Abaqus/CAE 6.14-1
*Preprint, echo=NO, model=NO, history=NO, contact=NO
**
** PARTS
**
*Part, name=irregular_3Dmesh
*End Part
**  
**
** ASSEMBLY
**
*Assembly, name=Assembly
**  
*Instance, name=irregular_3Dmesh-1, part=irregular_3Dmesh
*Node
      1,        -12.5,   21.6506348,          30.
      2,           0.,           0.,          30.
      3,   21.6506348,         12.5,          30.
      4,           0.,           0.,           0.
      5,        -12.5,   21.6506348,           0.
      6,   21.6506348,         12.5,           0.
      7,  -25.9807625,          45.,          30.
      8,  -25.9807625,          45.,           0.
      9,         -45.,          45.,           0.
     10,         -45.,          45.,          30.
     11,  -21.6506348,        -12.5,          30.
     12,  -21.6506348,        -12.5,           0.
     13,         -45.,  -25.9807625,          30.
     14,         -45.,  -25.9807625,           0.
     15,   25.9807625,         -45.,           0.
     16,         12.5,  -21.6506348,           0.
     17,         12.5,  -21.6506348,          30.
     18,   25.9807625,         -45.,          30.
     19,          25.,           0.,           0.
     20,          45.,   25.9807625,           0.
** ... 3599 like lines cut
*Element, type=C3D8R
  1,  638,  639, 2193, 2185,   58,   59,  585,  584
  2,  639,  640, 2194, 2193,   59,   60,  586,  585
  3,  640,  641, 2195, 2194,   60,   61,  587,  586
  4,  641,   72,  608, 2195,   61,    1,   62,  587
  5,  642,  643, 2196, 2184,  638,  639, 2193, 2185
  6,  643,  644, 2197, 2196,  639,  640, 2194, 2193
  7,  644,  645, 2198, 2197,  640,  641, 2195, 2194
  8,  645,   71,  609, 2198,  641,   72,  608, 2195
  9,  646,  647, 2183, 2180,  642,  643, 2196, 2184
 10,  647,  648, 2182, 2183,  643,  644, 2197, 2196
 11,  648,  649, 2181, 2182,  644,  645, 2198, 2197
 12,  649,   70,  610, 2181,  645,   71,  609, 2198
 13,  608,  611, 2240, 2195,   62,   63,  588,  587
 14,  611,  612, 2241, 2240,   63,   64,  589,  588
 15,  612,  613, 2242, 2241,   64,   65,  590,  589
 16,  613,  614, 2243, 2242,   65,   66,  591,  590
 17,  614,  615, 2244, 2243,   66,   67,  592,  591
 18,  615,   81,  683, 2244,   67,    2,   73,  592
 19, 2195, 2240, 2245, 2194,  587,  588,  593,  586
 20, 2240, 2241, 2246, 2245,  588,  589,  594,  593
** ... 2836 like lines cut
*Nset, nset=Set-1, generate
    1,  3619,     1
*Elset, elset=Set-1, generate
    1,  2856,     1
** Section: Section-1
*Solid Section, elset=Set-1, controls=EC-1, material=Material-1
,
*End Instance
**  
*Nset, nset=Set-2, instance=irregular_3Dmesh-1
 52,
*Nset, nset=corner000, instance=irregular_3Dmesh-1
 51,
*Nset, nset=corner010, instance=irregular_3Dmesh-1
 50,
*Nset, nset=corner011, instance=irregular_3Dmesh-1
 49,
*Nset, nset=corner100, instance=irregular_3Dmesh-1
 45,
*Nset, nset=corner101, instance=irregular_3Dmesh-1
 46,
*Nset, nset=corner111, instance=irregular_3Dmesh-1
 30,
*Nset, nset=fit-back, instance=irregular_3Dmesh-1
 33, 45, 50, 51
*End Assembly
** 
** ELEMENT CONTROLS
** 
*Section Controls, name=EC-1, hourglass=ENHANCED, second order accuracy=YES
1., 1., 1.
** 
** MATERIALS
** 
*Material, name=Material-1
*Elastic
 2e+11, 0.3
** ----------------------------------------------------------------
** 
** STEP: Step-1
** 
*Step, name=Step-1, nlgeom=YES
*Static
0.2, 1., 0.01, 0.2
** 
** BOUNDARY CONDITIONS
** 
** Name: corner000 Type: Displacement/Rotation
*Boundary
corner000, 1, 1, -20.
corner000, 2, 2, -20.
** Name: corner001 Type: Displacement/Rotation
*Boundary
Set-2, 1, 1, -20.
Set-2, 2, 2, -20.
** Name: corner010 Type: Displacement/Rotation
*Boundary
corner010, 1, 1, 20.
corner010, 2, 2, -20.
** Name: corner011 Type: Displacement/Rotation
*Boundary
corner011, 1, 1, 20.
corner011, 2, 2, -20.
** Name: corner100 Type: Displacement/Rotation
*Boundary
corner100, 1, 1, -20.
corner100, 2, 2, 20.
** Name: corner101 Type: Displacement/Rotation
*Boundary
corner101, 1, 1, -20.
corner101, 2, 2, 20.
** Name: corner111 Type: Displacement/Rotation
*Boundary
corner111, 1, 1, 20.
corner111, 2, 2, 20.
** Name: fit-back Type: Displacement/Rotation
*Boundary
fit-back, 3, 3
** 
** OUTPUT REQUESTS
** 
*Restart, write, frequency=0
** 
** FIELD OUTPUT: F-Output-1
** 
*Output, field, variable=PRESELECT
** 
** HISTORY OUTPUT: H-Output-1
** 
*Output, history, variable=PRESELECT
*End Step
